Circuit: * C:\users\liam\Mes documents\internship_Nexedi\simu_ltspice\inverting_aop\inverting_aop.asc

Direct Newton iteration for .op point succeeded.

Date: Fri Jun 07 11:02:12 2019
Total elapsed time: 0.058 seconds.

tnom = 27
temp = 27
method = modified trap
totiter = 2216
traniter = 2206
tranpoints = 1104
accept = 1071
rejected = 33
matrix size = 15
fillins = 11
solver = Normal
Matrix Compiler1: 808 bytes object code size  0.5/0.4/[0.4]
Matrix Compiler2: 1.39 KB object code size  0.5/0.5/[0.4]

