Circuit: * C:\users\liam\Mes documents\internship_Nexedi\simu_ltspice\common_emitter\Draft2.asc


Date: Tue Jun 25 11:40:15 2019
Total elapsed time: 0.036 seconds.

tnom = 27
temp = 27
method = trap
totiter = 0
traniter = 0
tranpoints = 0
accept = 0
rejected = 0
matrix size = 2
fillins = 1
solver = Normal

