Circuit: * C:\users\liam\Mes documents\internship_Nexedi\simu_ltspice\common_emitter\Draft11.asc

WARNING: Node N003 is floating.

Direct Newton iteration for .op point succeeded.

Date: Fri Jul 12 14:38:10 2019
Total elapsed time: 0.045 seconds.

tnom = 27
temp = 27
method = trap
totiter = 10
traniter = 0
tranpoints = 0
accept = 0
rejected = 0
matrix size = 11
fillins = 2
solver = Normal
Matrix Compiler1:      37 opcodes
Matrix Compiler2: 943 bytes object code size
