Circuit: * C:\users\liam\Mes documents\internship_Nexedi\simu_ltspice\common_emitter\Draft10.asc

WARNING: Node N007 is floating.


Date: Wed Jul 10 13:11:33 2019
Total elapsed time: 0.035 seconds.

tnom = 27
temp = 27
method = trap
totiter = 0
traniter = 0
tranpoints = 0
accept = 0
rejected = 0
matrix size = 10
fillins = 2
solver = Normal

