Circuit: * C:\users\liam\Mes documents\internship_Nexedi\simu_ltspice\common_emitter\Draft9.asc


Date: Wed Jul 10 10:41:13 2019
Total elapsed time: 0.018 seconds.

tnom = 27
temp = 27
method = trap
totiter = 0
traniter = 0
tranpoints = 0
accept = 0
rejected = 0
matrix size = 7
fillins = 2
solver = Normal

