Circuit: * C:\users\liam\Mes documents\internship_Nexedi\simu_ltspice\common_emitter\Draft15.asc

Direct Newton iteration for .op point succeeded.

Date: Thu Oct 03 17:00:24 2019
Total elapsed time: 0.043 seconds.

tnom = 27
temp = 27
method = modified trap
totiter = 2104
traniter = 2100
tranpoints = 1046
accept = 1045
rejected = 1
matrix size = 11
fillins = 0
solver = Normal
Matrix Compiler1:      35 opcodes  0.7/[0.6]/2.2
Matrix Compiler2: 835 bytes object code size  0.6/0.6/[0.6]

