Circuit: * C:\users\liam\Mes documents\internship_Nexedi\simu_ltspice\common_emitter\Draft14.asc

Direct Newton iteration for .op point succeeded.

Date: Mon Aug 12 15:46:13 2019
Total elapsed time: 0.041 seconds.

tnom = 27
temp = 27
method = trap
totiter = 7
traniter = 0
tranpoints = 0
accept = 0
rejected = 0
matrix size = 13
fillins = 0
solver = Normal
Matrix Compiler1:      39 opcodes
Matrix Compiler2: 993 bytes object code size
