Circuit: * C:\users\liam\Mes documents\internship_Nexedi\simu_ltspice\common_emitter\Draft12.asc

Direct Newton iteration for .op point succeeded.

Date: Wed Jul 17 17:22:15 2019
Total elapsed time: 0.043 seconds.

tnom = 27
temp = 27
method = modified trap
totiter = 4364
traniter = 4356
tranpoints = 1731
accept = 1414
rejected = 317
matrix size = 11
fillins = 0
solver = Normal
Matrix Compiler1: 610 bytes object code size  1.5/0.5/[0.5]
Matrix Compiler2: 835 bytes object code size  0.5/0.5/[0.5]

