Circuit: * C:\users\liam\Mes documents\internship_Nexedi\simu_ltspice\common_emitter\Draft13.asc

WARNING: Node N002 is floating.

Direct Newton iteration for .op point succeeded.

Date: Fri Jul 26 14:08:02 2019
Total elapsed time: 0.093 seconds.

tnom = 27
temp = 27
method = modified trap
totiter = 2108
traniter = 2088
tranpoints = 1045
accept = 1045
rejected = 0
matrix size = 12
fillins = 2
solver = Normal
Matrix Compiler1: 864 bytes object code size  1.3/1.2/[1.2]
Matrix Compiler2: 1008 bytes object code size  1.2/1.3/[1.2]

